
# Packages
 &PACKAGES
 useGMRedi=.TRUE.,
 usePTRACERS=.TRUE.,
 useOffline=.TRUE.,
 useGCHEM=.TRUE.,

 &
