# Packages
 &PACKAGES
 useGFD=.TRUE.,
 useGMRedi=.TRUE.,
 useRBCS=.TRUE.,
 useLayers=.TRUE.,
 useDiagnostics=.TRUE.,
 &
