#RBCS
	&RBCS_PARM01
	useRBCtemp=.TRUE.,
	tauRelaxT=864000.0,
	relaxMaskFile='T_relax_mask.50km.bin',
	relaxTFile='temperature.50km.bin'
	&

&RBCS_PARM02
	&

