#GMRedi
	&GM_PARM01
	GM_background_K=1000.0,
	GM_taper_scheme='dm95',
	GM_AdvForm=.TRUE.
	&

