# Packages
 &PACKAGES
 useGFD=.TRUE.,
 useMNC=.TRUE.,
 useDiagnostics=.TRUE.,
 &
